
**** 03/18/24 15:49:57 ********* PSpice 9.2 (Mar 2000) ******** ID# 0 ********

 * C:\Users\22121082\Desktop\EEE205 Exp02\Half-wave without cap.sch


 ****     CIRCUIT DESCRIPTION


******************************************************************************




* Schematics Version 9.2
* Mon Mar 18 15:49:55 2024



** Analysis setup **
.tran 0ns 2ms


* From [PSPICE NETLIST] section of C:\Program Files\Orcad\PSpice\PSpice.ini:
.lib "nom.lib"

.INC "Half-wave without cap.net"



**** INCLUDING "Half-wave without cap.net" ****
* Schematics Netlist *



V_V1         $N_0001 0 DC 0 AC 5V
+SIN 0 12 1K 0 0 0
D_D1         $N_0002 $N_0001 D1N4001 
R_R1         0 $N_0002  1k  

**** RESUMING "Half-wave without cap.cir" ****
.PROBE V(*) I(*) W(*) D(*) NOISE(*) 


.END

**** 03/18/24 15:49:57 ********* PSpice 9.2 (Mar 2000) ******** ID# 0 ********

 * C:\Users\22121082\Desktop\EEE205 Exp02\Half-wave without cap.sch


 ****     Diode MODEL PARAMETERS


******************************************************************************




               D1N4001         
          IS   14.110000E-09 
           N    1.984        
         IKF   94.81         
          BV   75            
         IBV   10.000000E-06 
          RS     .03389      
          TT    5.700000E-06 
         CJO   25.890000E-12 
          VJ     .3245       
           M     .44         


**** 03/18/24 15:49:57 ********* PSpice 9.2 (Mar 2000) ******** ID# 0 ********

 * C:\Users\22121082\Desktop\EEE205 Exp02\Half-wave without cap.sch


 ****     INITIAL TRANSIENT SOLUTION       TEMPERATURE =   27.000 DEG C


******************************************************************************



 NODE   VOLTAGE     NODE   VOLTAGE     NODE   VOLTAGE     NODE   VOLTAGE


($N_0001)    0.0000                   ($N_0002) 22.74E-21                   




    VOLTAGE SOURCE CURRENTS
    NAME         CURRENT

    V_V1        -2.274E-23

    TOTAL POWER DISSIPATION   0.00E+00  WATTS



          JOB CONCLUDED

          TOTAL JOB TIME             .02
